data_FAU

_audit_creation_method RASPA-1.0
_audit_creation_date 2022-4-23
_audit_author_name 'Pablo_Romero'

_cell_length_a    24.258
_cell_length_b    24.258
_cell_length_c    24.258
_cell_angle_alpha 90.000
_cell_angle_beta  90.000
_cell_angle_gamma 90.000
_cell_volume      14273.928

_symmetry_cell_setting          cubic
_symmetry_space_group_name_Hall 'P 1'
_symmetry_space_group_name_H-M  'P 1'
_symmetry_Int_Tables_number     1
_symmetry_equiv_pos_as_xyz 'x,y,z'

loop_
_atom_site_label
_atom_site_type_symbol
_atom_site_fract_x
_atom_site_fract_y
_atom_site_fract_z
_atom_site_charge
Si        Si     0.946     0.125     0.036     2.050
O         O     0.000     0.894     0.106    -1.025
O         O     0.997     0.997     0.141    -1.025
O         O     0.076     0.076     0.964    -1.025
O         O     0.071     0.071     0.321    -1.025
Si        Si     0.875     0.196     0.286     2.050
O         O     0.106     0.250     0.356    -1.025
O         O     0.003     0.247     0.391    -1.025
O         O     0.924     0.326     0.214    -1.025
O         O     0.929     0.321     0.571    -1.025
Si        Si     0.804     0.125     0.536     2.050
O         O     0.750     0.356     0.606    -1.025
O         O     0.753     0.253     0.641    -1.025
O         O     0.674     0.174     0.464    -1.025
O         O     0.679     0.179     0.821    -1.025
Si        Si     0.875     0.054     0.786     2.050
O         O     0.644     0.000     0.856    -1.025
O         O     0.747     0.003     0.891    -1.025
O         O     0.826     0.924     0.714    -1.025
O         O     0.821     0.929     0.071    -1.025
Si        Si     0.946     0.125     0.214     2.050
O         O     0.000     0.356     0.144    -1.025
O         O     0.997     0.253     0.109    -1.025
O         O     0.076     0.174     0.286    -1.025
O         O     0.071     0.179     0.929    -1.025
Si        Si     0.875     0.196     0.464     2.050
O         O     0.644     0.250     0.394    -1.025
O         O     0.747     0.247     0.359    -1.025
O         O     0.826     0.326     0.536    -1.025
O         O     0.821     0.321     0.179    -1.025
Si        Si     0.804     0.125     0.714     2.050
O         O     0.750     0.894     0.644    -1.025
O         O     0.753     0.997     0.609    -1.025
O         O     0.674     0.076     0.786    -1.025
O         O     0.679     0.071     0.429    -1.025
Si        Si     0.875     0.054     0.964     2.050
O         O     0.106     0.000     0.894    -1.025
O         O     0.003     0.003     0.859    -1.025
O         O     0.924     0.924     0.036    -1.025
O         O     0.929     0.929     0.679    -1.025
Si        Si     0.036     0.946     0.125     2.050
O         O     0.141     0.997     0.997    -1.025
O         O     0.964     0.076     0.076    -1.025
O         O     0.321     0.071     0.071    -1.025
Si        Si     0.054     0.286     0.375     2.050
O         O     0.003     0.391     0.247    -1.025
O         O     0.924     0.214     0.326    -1.025
O         O     0.929     0.571     0.321    -1.025
Si        Si     0.714     0.304     0.625     2.050
O         O     0.609     0.253     0.497    -1.025
O         O     0.786     0.174     0.576    -1.025
O         O     0.429     0.179     0.571    -1.025
Si        Si     0.696     0.964     0.875     2.050
O         O     0.747     0.859     0.747    -1.025
O         O     0.826     0.036     0.826    -1.025
O         O     0.821     0.679     0.821    -1.025
Si        Si     0.036     0.304     0.125     2.050
O         O     0.141     0.253     0.253    -1.025
O         O     0.964     0.174     0.174    -1.025
O         O     0.321     0.179     0.179    -1.025
Si        Si     0.696     0.286     0.375     2.050
O         O     0.747     0.391     0.503    -1.025
O         O     0.826     0.214     0.424    -1.025
O         O     0.821     0.571     0.429    -1.025
Si        Si     0.714     0.946     0.625     2.050
O         O     0.609     0.997     0.753    -1.025
O         O     0.786     0.076     0.674    -1.025
O         O     0.429     0.071     0.679    -1.025
Si        Si     0.054     0.964     0.875     2.050
O         O     0.003     0.859     0.003    -1.025
O         O     0.924     0.036     0.924    -1.025
O         O     0.929     0.679     0.929    -1.025
Si        Si     0.125     0.036     0.946     2.050
O         O     0.894     0.106     0.000    -1.025
O         O     0.997     0.141     0.997    -1.025
O         O     0.076     0.964     0.076    -1.025
O         O     0.071     0.321     0.071    -1.025
Si        Si     0.625     0.714     0.304     2.050
O         O     0.394     0.644     0.250    -1.025
O         O     0.497     0.609     0.253    -1.025
O         O     0.576     0.786     0.174    -1.025
O         O     0.571     0.429     0.179    -1.025
Si        Si     0.286     0.875     0.554     2.050
O         O     0.356     0.644     0.500    -1.025
O         O     0.391     0.747     0.503    -1.025
O         O     0.214     0.826     0.424    -1.025
O         O     0.571     0.821     0.429    -1.025
Si        Si     0.125     0.536     0.804     2.050
O         O     0.356     0.606     0.750    -1.025
O         O     0.253     0.641     0.753    -1.025
O         O     0.174     0.464     0.674    -1.025
O         O     0.179     0.821     0.679    -1.025
Si        Si     0.964     0.375     0.554     2.050
O         O     0.894     0.606     0.500    -1.025
O         O     0.859     0.503     0.503    -1.025
O         O     0.036     0.424     0.424    -1.025
O         O     0.679     0.429     0.429    -1.025
Si        Si     0.125     0.214     0.946     2.050
O         O     0.356     0.144     0.000    -1.025
O         O     0.253     0.109     0.997    -1.025
O         O     0.174     0.286     0.076    -1.025
O         O     0.179     0.929     0.071    -1.025
Si        Si     0.286     0.875     0.196     2.050
O         O     0.356     0.106     0.250    -1.025
O         O     0.391     0.003     0.247    -1.025
O         O     0.214     0.924     0.326    -1.025
O         O     0.571     0.929     0.321    -1.025
Si        Si     0.464     0.375     0.696     2.050
O         O     0.394     0.144     0.750    -1.025
O         O     0.359     0.247     0.747    -1.025
O         O     0.536     0.326     0.826    -1.025
O         O     0.179     0.321     0.821    -1.025
Si        Si     0.054     0.875     0.964     2.050
O         O     0.000     0.106     0.894    -1.025
Si        Si     0.125     0.804     0.714     2.050
O         O     0.894     0.750     0.644    -1.025
O         O     0.997     0.753     0.609    -1.025
O         O     0.076     0.674     0.786    -1.025
O         O     0.071     0.679     0.429    -1.025
Si        Si     0.196     0.875     0.464     2.050
O         O     0.250     0.644     0.394    -1.025
O         O     0.247     0.747     0.359    -1.025
O         O     0.326     0.826     0.536    -1.025
O         O     0.321     0.821     0.179    -1.025
Si        Si     0.125     0.946     0.214     2.050
O         O     0.356     0.000     0.144    -1.025
O         O     0.253     0.997     0.109    -1.025
O         O     0.174     0.076     0.286    -1.025
O         O     0.179     0.071     0.929    -1.025
Si        Si     0.054     0.875     0.786     2.050
O         O     0.000     0.644     0.856    -1.025
O         O     0.003     0.747     0.891    -1.025
O         O     0.924     0.826     0.714    -1.025
O         O     0.929     0.821     0.071    -1.025
Si        Si     0.125     0.804     0.536     2.050
O         O     0.356     0.750     0.606    -1.025
O         O     0.253     0.753     0.641    -1.025
O         O     0.174     0.674     0.464    -1.025
O         O     0.179     0.679     0.821    -1.025
Si        Si     0.196     0.875     0.286     2.050
O         O     0.250     0.106     0.356    -1.025
O         O     0.247     0.003     0.391    -1.025
O         O     0.326     0.924     0.214    -1.025
O         O     0.321     0.929     0.571    -1.025
Si        Si     0.125     0.946     0.036     2.050
O         O     0.894     0.000     0.106    -1.025
Si        Si     0.964     0.054     0.875     2.050
O         O     0.859     0.003     0.003    -1.025
O         O     0.036     0.924     0.924    -1.025
O         O     0.679     0.929     0.929    -1.025
Si        Si     0.946     0.714     0.625     2.050
O         O     0.997     0.609     0.753    -1.025
O         O     0.076     0.786     0.674    -1.025
O         O     0.071     0.429     0.679    -1.025
Si        Si     0.286     0.696     0.375     2.050
Si        Si     0.304     0.036     0.125     2.050
O         O     0.253     0.141     0.253    -1.025
O         O     0.174     0.964     0.174    -1.025
O         O     0.179     0.321     0.179    -1.025
Si        Si     0.964     0.696     0.875     2.050
O         O     0.859     0.747     0.747    -1.025
O         O     0.036     0.826     0.826    -1.025
O         O     0.679     0.821     0.821    -1.025
Si        Si     0.304     0.714     0.625     2.050
O         O     0.253     0.609     0.497    -1.025
O         O     0.174     0.786     0.576    -1.025
O         O     0.179     0.429     0.571    -1.025
Si        Si     0.286     0.054     0.375     2.050
Si        Si     0.946     0.036     0.125     2.050
Si        Si     0.875     0.964     0.054     2.050
O         O     0.106     0.894     0.000    -1.025
Si        Si     0.375     0.286     0.696     2.050
O         O     0.606     0.356     0.750    -1.025
O         O     0.503     0.391     0.747    -1.025
O         O     0.424     0.214     0.826    -1.025
O         O     0.429     0.571     0.821    -1.025
Si        Si     0.714     0.125     0.446     2.050
O         O     0.644     0.356     0.500    -1.025
Si        Si     0.875     0.464     0.196     2.050
O         O     0.644     0.394     0.250    -1.025
O         O     0.747     0.359     0.247    -1.025
O         O     0.826     0.536     0.326    -1.025
O         O     0.821     0.179     0.321    -1.025
Si        Si     0.036     0.625     0.446     2.050
O         O     0.106     0.394     0.500    -1.025
O         O     0.141     0.497     0.497    -1.025
O         O     0.964     0.576     0.576    -1.025
O         O     0.321     0.571     0.571    -1.025
Si        Si     0.875     0.786     0.054     2.050
O         O     0.644     0.856     0.000    -1.025
O         O     0.747     0.891     0.003    -1.025
O         O     0.826     0.714     0.924    -1.025
O         O     0.821     0.071     0.929    -1.025
Si        Si     0.714     0.125     0.804     2.050
O         O     0.644     0.894     0.750    -1.025
Si        Si     0.536     0.625     0.304     2.050
O         O     0.606     0.856     0.250    -1.025
O         O     0.641     0.753     0.253    -1.025
O         O     0.464     0.674     0.174    -1.025
O         O     0.821     0.679     0.179    -1.025
Si        Si     0.946     0.625     0.536     2.050
O         O     0.000     0.394     0.606    -1.025
O         O     0.997     0.497     0.641    -1.025
O         O     0.076     0.576     0.464    -1.025
O         O     0.071     0.571     0.821    -1.025
Si        Si     0.875     0.696     0.786     2.050
O         O     0.106     0.750     0.856    -1.025
Al1        Al     0.804     0.625     0.036     2.050
O         O     0.750     0.856     0.106    -1.025
O         O     0.753     0.753     0.141    -1.025
O         O     0.674     0.674     0.964    -1.025
O         O     0.679     0.679     0.321    -1.025
Si        Si     0.875     0.554     0.286     2.050
O         O     0.644     0.500     0.356    -1.025
O         O     0.747     0.503     0.391    -1.025
O         O     0.826     0.424     0.214    -1.025
O         O     0.821     0.429     0.571    -1.025
Si        Si     0.946     0.625     0.714     2.050
O         O     0.000     0.856     0.644    -1.025
Si        Si     0.875     0.696     0.964     2.050
O         O     0.644     0.750     0.894    -1.025
O         O     0.747     0.747     0.859    -1.025
O         O     0.826     0.826     0.036    -1.025
O         O     0.821     0.821     0.679    -1.025
Si        Si     0.804     0.625     0.214     2.050
O         O     0.750     0.394     0.144    -1.025
O         O     0.753     0.497     0.109    -1.025
O         O     0.674     0.576     0.286    -1.025
O         O     0.679     0.571     0.929    -1.025
Si        Si     0.875     0.554     0.464     2.050
O         O     0.106     0.500     0.394    -1.025
O         O     0.003     0.503     0.359    -1.025
O         O     0.924     0.424     0.536    -1.025
O         O     0.929     0.429     0.179    -1.025
Si        Si     0.036     0.446     0.625     2.050
Si        Si     0.054     0.786     0.875     2.050
O         O     0.003     0.891     0.747    -1.025
O         O     0.924     0.714     0.826    -1.025
O         O     0.929     0.071     0.821    -1.025
Si        Si     0.714     0.804     0.125     2.050
O         O     0.609     0.753     0.997    -1.025
O         O     0.786     0.674     0.076    -1.025
O         O     0.429     0.679     0.071    -1.025
Si        Si     0.696     0.464     0.375     2.050
Si        Si     0.036     0.804     0.625     2.050
O         O     0.141     0.753     0.753    -1.025
O         O     0.964     0.674     0.674    -1.025
O         O     0.321     0.679     0.679    -1.025
Si        Si     0.696     0.786     0.875     2.050
Si        Si     0.714     0.446     0.125     2.050
O         O     0.609     0.497     0.253    -1.025
O         O     0.786     0.576     0.174    -1.025
O         O     0.429     0.571     0.179    -1.025
Si        Si     0.054     0.464     0.375     2.050
O         O     0.003     0.359     0.503    -1.025
O         O     0.924     0.536     0.424    -1.025
O         O     0.929     0.179     0.429    -1.025
Si        Si     0.125     0.536     0.446     2.050
O         O     0.997     0.641     0.497    -1.025
O         O     0.076     0.464     0.576    -1.025
O         O     0.071     0.821     0.571    -1.025
Si        Si     0.625     0.214     0.804     2.050
O         O     0.497     0.109     0.753    -1.025
O         O     0.576     0.286     0.674    -1.025
O         O     0.571     0.929     0.679    -1.025
Si        Si     0.286     0.375     0.054     2.050
O         O     0.391     0.247     0.003    -1.025
O         O     0.214     0.326     0.924    -1.025
O         O     0.571     0.321     0.929    -1.025
Si        Si     0.125     0.036     0.304     2.050
Si        Si     0.964     0.875     0.054     2.050
Si        Si     0.125     0.714     0.446     2.050
Si        Si     0.286     0.375     0.696     2.050
O         O     0.391     0.503     0.747    -1.025
O         O     0.214     0.424     0.826    -1.025
O         O     0.571     0.429     0.821    -1.025
Si        Si     0.464     0.875     0.196     2.050
O         O     0.359     0.747     0.247    -1.025
O         O     0.536     0.826     0.326    -1.025
O         O     0.179     0.821     0.321    -1.025
Si        Si     0.054     0.375     0.464     2.050
O         O     0.000     0.606     0.394    -1.025
Si        Si     0.125     0.304     0.214     2.050
O         O     0.894     0.250     0.144    -1.025
Si        Si     0.196     0.375     0.964     2.050
O         O     0.250     0.144     0.894    -1.025
O         O     0.247     0.247     0.859    -1.025
O         O     0.326     0.326     0.036    -1.025
O         O     0.321     0.321     0.679    -1.025
Si        Si     0.125     0.446     0.714     2.050
O         O     0.356     0.500     0.644    -1.025
O         O     0.253     0.497     0.609    -1.025
O         O     0.174     0.576     0.786    -1.025
O         O     0.179     0.571     0.429    -1.025
Si        Si     0.054     0.375     0.286     2.050
O         O     0.000     0.144     0.356    -1.025
Si        Si     0.125     0.304     0.036     2.050
O         O     0.356     0.250     0.106    -1.025
O         O     0.253     0.253     0.141    -1.025
O         O     0.174     0.174     0.964    -1.025
O         O     0.179     0.179     0.321    -1.025
Si        Si     0.196     0.375     0.786     2.050
O         O     0.250     0.606     0.856    -1.025
O         O     0.247     0.503     0.891    -1.025
O         O     0.326     0.424     0.714    -1.025
O         O     0.321     0.429     0.071    -1.025
Si        Si     0.125     0.446     0.536     2.050
O         O     0.894     0.500     0.606    -1.025
Si        Si     0.964     0.554     0.375     2.050
Si        Si     0.946     0.214     0.125     2.050
O         O     0.997     0.109     0.253    -1.025
O         O     0.076     0.286     0.174    -1.025
O         O     0.071     0.929     0.179    -1.025
Si        Si     0.286     0.196     0.875     2.050
Si        Si     0.304     0.536     0.625     2.050
Si        Si     0.964     0.196     0.375     2.050
O         O     0.859     0.247     0.247    -1.025
O         O     0.036     0.326     0.326    -1.025
O         O     0.679     0.321     0.321    -1.025
Si        Si     0.304     0.214     0.125     2.050
Si        Si     0.286     0.554     0.875     2.050
Si        Si     0.946     0.536     0.625     2.050
Si        Si     0.875     0.464     0.554     2.050
Si        Si     0.375     0.786     0.196     2.050
O         O     0.503     0.891     0.247    -1.025
O         O     0.424     0.714     0.326    -1.025
O         O     0.429     0.071     0.321    -1.025
Al2        Al     0.714     0.625     0.946     2.050
Si        Si     0.875     0.964     0.696     2.050
Si        Si     0.036     0.125     0.946     2.050
Si        Si     0.875     0.286     0.554     2.050
Si        Si     0.714     0.625     0.304     2.050
Si        Si     0.536     0.125     0.804     2.050
O         O     0.641     0.253     0.753    -1.025
O         O     0.464     0.174     0.674    -1.025
O         O     0.821     0.179     0.679    -1.025
Si        Si     0.446     0.125     0.536     2.050
O         O     0.500     0.894     0.606    -1.025
O         O     0.497     0.997     0.641    -1.025
O         O     0.576     0.076     0.464    -1.025
O         O     0.571     0.071     0.821    -1.025
Si        Si     0.375     0.196     0.786     2.050
O         O     0.606     0.250     0.856    -1.025
O         O     0.503     0.247     0.891    -1.025
O         O     0.424     0.326     0.714    -1.025
O         O     0.429     0.321     0.071    -1.025
Si        Si     0.304     0.125     0.036     2.050
O         O     0.250     0.356     0.106    -1.025
Si        Si     0.375     0.054     0.286     2.050
O         O     0.144     0.000     0.356    -1.025
Si        Si     0.446     0.125     0.714     2.050
O         O     0.500     0.356     0.644    -1.025
O         O     0.497     0.253     0.609    -1.025
O         O     0.576     0.174     0.786    -1.025
O         O     0.571     0.179     0.429    -1.025
Si        Si     0.375     0.196     0.964     2.050
O         O     0.144     0.250     0.894    -1.025
Si        Si     0.304     0.125     0.214     2.050
O         O     0.250     0.894     0.144    -1.025
Si        Si     0.375     0.054     0.464     2.050
O         O     0.606     0.000     0.394    -1.025
O         O     0.503     0.003     0.359    -1.025
O         O     0.424     0.924     0.536    -1.025
O         O     0.429     0.929     0.179    -1.025
Si        Si     0.536     0.946     0.625     2.050
O         O     0.641     0.997     0.497    -1.025
O         O     0.464     0.076     0.576    -1.025
O         O     0.821     0.071     0.571    -1.025
Si        Si     0.554     0.286     0.875     2.050
Si        Si     0.214     0.304     0.125     2.050
O         O     0.109     0.253     0.997    -1.025
O         O     0.286     0.174     0.076    -1.025
O         O     0.929     0.179     0.071    -1.025
Si        Si     0.196     0.964     0.375     2.050
O         O     0.247     0.859     0.247    -1.025
O         O     0.326     0.036     0.326    -1.025
O         O     0.321     0.679     0.321    -1.025
Si        Si     0.536     0.304     0.625     2.050
Si        Si     0.196     0.286     0.875     2.050
O         O     0.247     0.391     0.003    -1.025
O         O     0.326     0.214     0.924    -1.025
O         O     0.321     0.571     0.929    -1.025
Si        Si     0.214     0.946     0.125     2.050
O         O     0.109     0.997     0.253    -1.025
O         O     0.286     0.076     0.174    -1.025
O         O     0.929     0.071     0.179    -1.025
Si        Si     0.554     0.964     0.375     2.050
O         O     0.503     0.859     0.503    -1.025
O         O     0.424     0.036     0.424    -1.025
O         O     0.429     0.679     0.429    -1.025
Si        Si     0.625     0.036     0.446     2.050
O         O     0.394     0.106     0.500    -1.025
O         O     0.497     0.141     0.497    -1.025
O         O     0.576     0.964     0.576    -1.025
O         O     0.571     0.321     0.571    -1.025
Si        Si     0.125     0.714     0.804     2.050
O         O     0.894     0.644     0.750    -1.025
Si        Si     0.786     0.875     0.054     2.050
O         O     0.856     0.644     0.000    -1.025
O         O     0.891     0.747     0.003    -1.025
O         O     0.714     0.826     0.924    -1.025
O         O     0.071     0.821     0.929    -1.025
Si        Si     0.625     0.536     0.304     2.050
O         O     0.856     0.606     0.250    -1.025
O         O     0.753     0.641     0.253    -1.025
O         O     0.674     0.464     0.174    -1.025
O         O     0.679     0.821     0.179    -1.025
Si        Si     0.464     0.375     0.054     2.050
O         O     0.394     0.606     0.000    -1.025
O         O     0.359     0.503     0.003    -1.025
O         O     0.536     0.424     0.924    -1.025
O         O     0.179     0.429     0.929    -1.025
Si        Si     0.625     0.214     0.446     2.050
O         O     0.856     0.144     0.500    -1.025
O         O     0.753     0.109     0.497    -1.025
O         O     0.674     0.286     0.576    -1.025
O         O     0.679     0.929     0.571    -1.025
Si        Si     0.786     0.875     0.696     2.050
O         O     0.856     0.106     0.750    -1.025
O         O     0.891     0.003     0.747    -1.025
O         O     0.714     0.924     0.826    -1.025
O         O     0.071     0.929     0.821    -1.025
Si        Si     0.964     0.375     0.196     2.050
O         O     0.894     0.144     0.250    -1.025
Si        Si     0.554     0.875     0.464     2.050
O         O     0.500     0.106     0.394    -1.025
Si        Si     0.625     0.804     0.214     2.050
O         O     0.394     0.750     0.144    -1.025
O         O     0.497     0.753     0.109    -1.025
O         O     0.576     0.674     0.286    -1.025
O         O     0.571     0.679     0.929    -1.025
Si        Si     0.696     0.875     0.964     2.050
O         O     0.750     0.644     0.894    -1.025
Si        Si     0.625     0.946     0.714     2.050
O         O     0.856     0.000     0.644    -1.025
Si        Si     0.554     0.875     0.286     2.050
O         O     0.500     0.644     0.356    -1.025
O         O     0.503     0.747     0.391    -1.025
O         O     0.424     0.826     0.214    -1.025
O         O     0.429     0.821     0.571    -1.025
Si        Si     0.625     0.804     0.036     2.050
O         O     0.856     0.750     0.106    -1.025
Si        Si     0.696     0.875     0.786     2.050
O         O     0.750     0.106     0.856    -1.025
Si        Si     0.625     0.946     0.536     2.050
O         O     0.394     0.000     0.606    -1.025
Si        Si     0.464     0.054     0.375     2.050
O         O     0.359     0.003     0.503    -1.025
O         O     0.536     0.924     0.424    -1.025
O         O     0.179     0.929     0.429    -1.025
Si        Si     0.446     0.714     0.125     2.050
Si        Si     0.786     0.696     0.875     2.050
Si        Si     0.804     0.036     0.625     2.050
O         O     0.753     0.141     0.753    -1.025
O         O     0.674     0.964     0.674    -1.025
O         O     0.679     0.321     0.679    -1.025
Si        Si     0.464     0.696     0.375     2.050
Si        Si     0.804     0.714     0.125     2.050
O         O     0.753     0.609     0.997    -1.025
O         O     0.674     0.786     0.076    -1.025
O         O     0.679     0.429     0.071    -1.025
Si        Si     0.786     0.054     0.875     2.050
Si        Si     0.446     0.036     0.625     2.050
Si        Si     0.375     0.964     0.554     2.050
O         O     0.606     0.894     0.500    -1.025
Si        Si     0.875     0.286     0.196     2.050
O         O     0.106     0.356     0.250    -1.025
Si        Si     0.214     0.125     0.946     2.050
O         O     0.144     0.356     0.000    -1.025
Si        Si     0.375     0.464     0.696     2.050
O         O     0.144     0.394     0.750    -1.025
O         O     0.247     0.359     0.747    -1.025
O         O     0.326     0.536     0.826    -1.025
O         O     0.321     0.179     0.821    -1.025
Al3        Al     0.536     0.625     0.946     2.050
O         O     0.606     0.394     0.000    -1.025
O         O     0.641     0.497     0.997    -1.025
O         O     0.464     0.576     0.076    -1.025
O         O     0.821     0.571     0.071    -1.025
Si        Si     0.375     0.786     0.554     2.050
O         O     0.144     0.856     0.500    -1.025
O         O     0.247     0.891     0.503    -1.025
O         O     0.326     0.714     0.424    -1.025
O         O     0.321     0.071     0.429    -1.025
Si        Si     0.214     0.125     0.304     2.050
O         O     0.144     0.894     0.250    -1.025
Si        Si     0.036     0.625     0.804     2.050
O         O     0.106     0.856     0.750    -1.025
Al4        Al     0.446     0.625     0.036     2.050
O         O     0.500     0.394     0.106    -1.025
O         O     0.497     0.497     0.141    -1.025
O         O     0.576     0.576     0.964    -1.025
O         O     0.571     0.571     0.321    -1.025
Si        Si     0.375     0.696     0.286     2.050
O         O     0.606     0.750     0.356    -1.025
Si        Si     0.304     0.625     0.536     2.050
O         O     0.250     0.856     0.606    -1.025
Si        Si     0.375     0.554     0.786     2.050
O         O     0.144     0.500     0.856    -1.025
Si        Si     0.446     0.625     0.214     2.050
O         O     0.500     0.856     0.144    -1.025
Si        Si     0.375     0.696     0.464     2.050
O         O     0.144     0.750     0.394    -1.025
Si        Si     0.304     0.625     0.714     2.050
O         O     0.250     0.394     0.644    -1.025
Si        Si     0.375     0.554     0.964     2.050
O         O     0.606     0.500     0.894    -1.025
O         O     0.503     0.503     0.859    -1.025
O         O     0.424     0.424     0.036    -1.025
O         O     0.429     0.429     0.679    -1.025
Si        Si     0.536     0.446     0.125     2.050
Si        Si     0.554     0.786     0.375     2.050
Si        Si     0.214     0.804     0.625     2.050
O         O     0.109     0.753     0.497    -1.025
O         O     0.286     0.674     0.576    -1.025
O         O     0.929     0.679     0.571    -1.025
Si        Si     0.196     0.464     0.875     2.050
Si        Si     0.536     0.804     0.125     2.050
Si        Si     0.196     0.786     0.375     2.050
Si        Si     0.214     0.446     0.625     2.050
O         O     0.109     0.497     0.753    -1.025
O         O     0.286     0.576     0.674    -1.025
O         O     0.929     0.571     0.679    -1.025
Si        Si     0.554     0.464     0.875     2.050
O         O     0.503     0.359     0.003    -1.025
O         O     0.424     0.536     0.924    -1.025
O         O     0.429     0.179     0.929    -1.025
Si        Si     0.625     0.536     0.946     2.050
O         O     0.497     0.641     0.997    -1.025
O         O     0.576     0.464     0.076    -1.025
O         O     0.571     0.821     0.071    -1.025
Si        Si     0.125     0.214     0.304     2.050
Si        Si     0.786     0.375     0.554     2.050
O         O     0.891     0.247     0.503    -1.025
O         O     0.714     0.326     0.424    -1.025
O         O     0.071     0.321     0.429    -1.025
Si        Si     0.625     0.036     0.804     2.050
Si        Si     0.464     0.875     0.554     2.050
Al5        Al     0.625     0.714     0.946     2.050
Si        Si     0.786     0.375     0.196     2.050
O         O     0.891     0.503     0.247    -1.025
O         O     0.714     0.424     0.326    -1.025
O         O     0.071     0.429     0.321    -1.025
Si        Si     0.964     0.875     0.696     2.050
Si        Si     0.554     0.375     0.964     2.050
O         O     0.500     0.606     0.894    -1.025
Si        Si     0.625     0.304     0.714     2.050
O         O     0.394     0.250     0.644    -1.025
Si        Si     0.696     0.375     0.464     2.050
O         O     0.750     0.144     0.394    -1.025
Si        Si     0.625     0.446     0.214     2.050
O         O     0.856     0.500     0.144    -1.025
Si        Si     0.554     0.375     0.786     2.050
O         O     0.500     0.144     0.856    -1.025
Si        Si     0.625     0.304     0.536     2.050
O         O     0.856     0.250     0.606    -1.025
Si        Si     0.696     0.375     0.286     2.050
O         O     0.750     0.606     0.356    -1.025
Si        Si     0.625     0.446     0.036     2.050
O         O     0.394     0.500     0.106    -1.025
Si        Si     0.464     0.554     0.875     2.050
Si        Si     0.446     0.214     0.625     2.050
Si        Si     0.786     0.196     0.375     2.050
Si        Si     0.804     0.536     0.125     2.050
Si        Si     0.464     0.196     0.875     2.050
Si        Si     0.804     0.214     0.625     2.050
Si        Si     0.786     0.554     0.375     2.050
Si        Si     0.446     0.536     0.125     2.050
Si        Si     0.375     0.464     0.054     2.050
Si        Si     0.875     0.786     0.696     2.050
Si        Si     0.214     0.625     0.446     2.050
Si        Si     0.375     0.964     0.196     2.050
Si        Si     0.536     0.125     0.446     2.050
Si        Si     0.375     0.286     0.054     2.050
Si        Si     0.214     0.625     0.804     2.050
Si        Si     0.036     0.125     0.304     2.050
